206
XYZ file generated by Avogadro.
S     49.86130    3.87340    7.72920
C     49.72900    5.00370    9.04980
C     50.88070    4.97260    9.82580
C     51.84360    4.04080    9.36030
C     51.42620    3.36420    8.23410
C     48.55160    5.82530    9.19970
S     48.60080    7.27820   10.15810
C     46.93410    7.65360    9.81740
C     46.38720    6.69360    8.97700
C     47.29160    5.66210    8.63560
C     46.29660    8.82740   10.41150
C     46.55460    9.15140   11.75800
C     45.91370   10.21820   12.39790
C     45.00460   10.99460   11.65170
C     44.77600   10.71930   10.30910
C     45.40980    9.64350    9.65100
C     45.30210    9.47110    8.19810
C     44.28610    9.81370    7.36750
C     42.93430   10.25840    7.72370
C     42.32300   11.30410    7.00630
C     41.05030   11.75520    7.34650
C     40.31720   11.16940    8.40060
C     40.91170   10.08000    9.07890
C     42.18960    9.64300    8.75130
C     38.96660   11.66600    8.66180
C     38.11260   11.36650    9.66920
C     38.38470   10.60640   10.90270
C     37.61260    9.47020   11.25450
C     37.81750    8.86110   12.50560
C     38.78440    9.32250   13.41460
C     39.54590   10.45370   13.04810
C     39.34620   11.07290   11.81970
C     36.64220    8.91630   10.30940
C     36.77310    8.74370    8.93850
C     35.64830    8.13550    8.33890
C     34.63450    7.84430    9.24410
S     35.10240    8.31470   10.85400
C     38.90790    8.65470   14.71540
C     39.95830    8.62980   15.57060
C     41.32490    9.12750   15.34890
C     42.04970    8.80340   14.18380
C     43.35370    9.24990   13.99620
C     43.99240   10.05610   14.96540
C     43.27090   10.35740   16.13970
C     41.97130    9.89520   16.33470
C     46.21740   10.54600   13.80680
C     45.37640   10.52600   14.86650
C     33.35540    7.22720    9.00210
S     33.11860    6.20240    7.61480
C     31.46770    5.86430    8.05270
C     31.13920    6.51300    9.23560
C     32.19730    7.28240    9.76880
C     30.63300    5.00860    7.21280
C     30.71240    5.11170    5.81030
C     29.88120    4.36510    4.96810
C     28.95350    3.48200    5.55480
C     28.89600    3.33310    6.93620
C     29.73190    4.07360    7.79820
C     29.80530    3.76890    9.23240
C     28.83180    3.31160   10.05760
C     27.39670    3.20640    9.77870
C     26.66900    2.08480   10.21930
C     25.31170    1.95760    9.93550
C     24.61110    2.95510    9.22380
C     25.33340    4.10820    8.83830
C     26.69210    4.22430    9.10300
C     23.17590    2.77600    9.01060
C     22.30890    3.51700    8.27980
C     22.60680    4.59900    7.32380
C     22.02330    5.88530    7.45910
C     22.22680    6.84100    6.44650
C     23.00980    6.57590    5.31130
C     23.58380    5.29100    5.19210
C     23.38530    4.33430    6.18050
C     21.25040    6.22530    8.65300
C     21.49700    5.87690    9.97430
C     20.55940    6.41510   10.88200
C     19.57430    7.17930   10.26710
S     19.83470    7.23460    8.54610
C     23.13520    7.61380    4.28180
C     24.09180    7.77260    3.33580
C     25.35870    7.04010    3.19010
C     26.22720    6.84080    4.28270
C     27.43700    6.17160    4.13110
C     27.83090    5.65850    2.87460
C     26.97040    5.88370    1.77960
C     25.76670    6.56880    1.92890
C     30.00430    4.47250    3.49760
C     29.10390    4.97850    2.62460
C     18.47310    7.88450   10.86960
S     18.47830    8.23770   12.57510
C     16.95860    9.08050   12.48090
C     16.49020    9.08990   11.17440
C     17.33600    8.41240   10.26820
C     16.35150    9.66510   13.67490
C     16.32770    8.93780   14.87990
C     15.68880    9.42930   16.02410
C     15.07430   10.69540   15.95400
C     15.13390   11.44780   14.78600
C     15.77630   10.96660   13.62570
C     16.01210   11.83220   12.46390
C     15.26830   12.86690   12.00170
C     13.91860   13.25950   12.41680
C     13.59170   14.62050   12.56610
C     12.32240   15.00750   12.98690
C     11.31320   14.05770   13.25330
C     11.62890   12.69540   13.04300
C     12.90140   12.30880   12.64230
C      9.98880   14.54290   13.63640
C      8.90580   13.85100   14.06230
C      8.81920   12.43390   14.46030
C      7.87840   11.56550   13.85360
C      7.71600   10.26340   14.35430
C      8.48420    9.77490   15.42530
C      9.42310   10.64970   16.01530
C      9.58300   11.94580   15.53840
C      8.22770    8.41560   15.91460
C      9.03990    7.58670   16.61370
C     10.46530    7.76120   16.93020
C     11.40080    8.14040   15.94570
C     12.75220    8.27330   16.24690
C     13.23200    8.04370   17.55610
C     12.29580    7.63730   18.53040
C     10.94520    7.48800   18.22430
C     15.69780    8.65410   17.28350
C     14.64250    8.12270   17.94250
H     51.00980    5.59450   10.71170
H     52.80630    3.86820    9.83940
H     51.95180    2.59700    7.67290
H     45.34610    6.72590    8.65700
H     47.03270    4.80490    8.01420
H     47.23500    8.51680   12.33080
H     44.50200   11.83580   12.13350
H     44.11750   11.37030    9.73320
H     46.20450    9.06910    7.72650
H     44.49300    9.76370    6.29320
H     42.86730   11.77920    6.18740
H     40.60150   12.57820    6.78580
H     40.35700    9.56320    9.86190
H     42.62720    8.79830    9.28710
H     38.57990   12.33390    7.88470
H     37.08640   11.74140    9.57790
H     37.22710    7.97750   12.76180
H     40.27830   10.86080   13.74540
H     39.92340   11.96210   11.55770
H     37.67320    9.03380    8.39800
H     35.56210    7.92550    7.27280
H     38.00100    8.13540   15.04240
H     39.78220    8.17390   16.55070
H     41.57730    8.17250   13.42800
H     43.89570    8.95270   13.09870
H     43.74940   10.96190   16.91340
H     41.43760   10.14340   17.25450
H     47.25050   10.85310   14.00250
H     45.79060   10.88250   15.81560
H     30.14370    6.45390    9.67450
H     32.11930    7.88970   10.67070
H     31.40730    5.83230    5.37210
H     28.29950    2.89130    4.91030
H     28.21630    2.59840    7.37000
H     30.80760    3.86890    9.66160
H     29.14490    2.97310   11.05080
H     27.18630    1.29670   10.77060
H     24.77000    1.07110   10.27290
H     24.81700    4.92720    8.33830
H     27.22870    5.12480    8.79720
H     22.73990    1.95100    9.58400
H     21.24290    3.28670    8.39290
H     21.78690    7.83450    6.56710
H     24.16650    5.03940    4.30610
H     23.81440    3.33640    6.06610
H     22.35110    5.26830   10.26690
H     20.58760    6.24750   11.95880
H     22.31250    8.33640    4.26890
H     23.91410    8.54890    2.58380
H     25.94530    7.23910    5.25950
H     28.09810    6.06280    4.99030
H     27.26230    5.51440    0.79380
H     25.12030    6.72850    1.06330
H     30.93660    4.08100    3.07620
H     29.36350    4.89900    1.56370
H     15.54220    9.55220   10.90030
H     17.12090    8.28750    9.20690
H     16.77660    7.94170   14.90380
H     14.57500   11.09430   16.83900
H     14.70780   12.45150   14.77170
H     16.96020   11.64230   11.95070
H     15.72480   13.49560   11.22980
H     14.35460   15.37690   12.36970
H     12.09480   16.06850   13.11220
H     10.86080   11.93490   13.18350
H     13.12260   11.25130   12.48280
H      9.84890   15.61960   13.49420
H      7.96400   14.40590   14.14370
H      6.99310    9.60170   13.86990
H     10.00980   10.31290   16.87010
H     10.29290   12.62080   16.02120
H      7.21980    8.04430   15.70160
H      8.59060    6.66050   16.98740
H     11.05230    8.31190   14.92540
H     13.45200    8.53640   15.45430
H     12.64470    7.43120   19.54490
H     10.24350    7.17110   18.99880
H     16.68570    8.50690   17.73350
H     14.86610    7.64490   18.90220
H      7.31670   11.88730   13.04990
